<?xml version="1.0" encoding="UTF-8"?>

<!-- generated on 2026-04-01T09:54:26.914961+05:30 by Eclipse SUMO netconvert 1.26.0
<netconvertConfiguration xmlns:xsi="http://www.w3.org/2001/XMLSchema-instance" xsi:noNamespaceSchemaLocation="http://sumo.dlr.de/xsd/netconvertConfiguration.xsd">

    <input>
        <osm-files value="sumo/maps/silk_board_corridor.osm"/>
    </input>

    <output>
        <output-file value="sumo/maps/silk_board_corridor.net.xml"/>
    </output>

    <projection>
        <proj.utm value="true"/>
    </projection>

    <processing>
        <geometry.remove value="true"/>
        <roundabouts.guess value="true"/>
        <lefthand value="true"/>
    </processing>

    <tls_building>
        <tls.discard-simple value="true"/>
        <tls.guess-signals value="true"/>
    </tls_building>

    <ramp_guessing>
        <ramps.guess value="true"/>
    </ramp_guessing>

    <junctions>
        <no-turnarounds value="true"/>
        <junctions.join value="true"/>
    </junctions>

</netconvertConfiguration>
-->

<net version="1.20" junctionCornerDetail="5" lefthand="true" limitTurnSpeed="5.50" xmlns:xsi="http://www.w3.org/2001/XMLSchema-instance" xsi:noNamespaceSchemaLocation="http://sumo.dlr.de/xsd/net_file.xsd">

    <location netOffset="-779956.91,-1418649.69" convBoundary="0.00,-0.00,11911.70,11255.10" origBoundary="77.580048,12.819088,77.688657,12.921860" projParameter="+proj=utm +zone=43 +ellps=WGS84 +datum=WGS84 +units=m +no_defs"/>

    <type id="highway.footway" priority="1" numLanes="1" speed="2.78" allow="pedestrian" oneway="1" width="2.00"/>
    <type id="highway.path" priority="1" numLanes="1" speed="5.56" allow="pedestrian bicycle" oneway="0" width="2.00"/>
    <type id="highway.primary" priority="12" numLanes="2" speed="27.78" disallow="tram rail_urban rail rail_electric rail_fast ship container cable_car subway aircraft wheelchair scooter drone" oneway="0"/>
    <type id="highway.primary_link" priority="7" numLanes="1" speed="22.22" disallow="tram rail_urban rail rail_electric rail_fast ship container cable_car subway aircraft wheelchair scooter drone" oneway="0"/>
    <type id="highway.residential" priority="3" numLanes="1" speed="13.89" disallow="tram rail_urban rail rail_electric rail_fast ship container cable_car subway aircraft wheelchair scooter drone" oneway="0"/>
    <type id="highway.service" priority="1" numLanes="1" speed="5.56" allow="pedestrian delivery bicycle" oneway="0"/>
    <type id="highway.tertiary" priority="10" numLanes="1" speed="22.22" disallow="tram rail_urban rail rail_electric rail_fast ship container cable_car subway aircraft wheelchair scooter drone" oneway="0"/>
    <type id="highway.trunk" priority="13" numLanes="2" speed="27.78" disallow="pedestrian bicycle tram rail_urban rail rail_electric rail_fast ship container cable_car subway aircraft wheelchair scooter drone" oneway="0"/>
    <type id="highway.trunk_link" priority="8" numLanes="1" speed="22.22" disallow="pedestrian bicycle tram rail_urban rail rail_electric rail_fast ship container cable_car subway aircraft wheelchair scooter drone" oneway="0"/>
    <type id="highway.unclassified" priority="4" numLanes="1" speed="13.89" disallow="tram rail_urban rail rail_electric rail_fast ship container cable_car subway aircraft wheelchair scooter drone" oneway="0"/>
    <type id="railway.subway" priority="18" numLanes="1" speed="27.78" allow="subway" oneway="1"/>

    <edge id=":10081538827_0" function="internal">
        <lane id=":10081538827_0_0" index="0" allow="delivery" speed="5.02" length="5.02" shape="4511.44,10739.19 4510.22,10738.55 4509.50,10737.67 4509.29,10736.56 4509.59,10735.21"/>
    </edge>
    <edge id=":10081538827_1" function="internal">
        <lane id=":10081538827_1_0" index="0" disallow="pedestrian bicycle tram rail_urban rail rail_electric rail_fast ship container cable_car subway aircraft wheelchair scooter drone" speed="13.89" length="6.14" shape="4511.44,10739.19 4505.62,10737.25"/>
    </edge>
    <edge id=":10081538833_0" function="internal">
        <lane id=":10081538833_0_0" index="0" allow="pedestrian delivery bicycle" speed="5.56" length="2.33" shape="4514.36,10722.73 4516.48,10721.76"/>
    </edge>
    <edge id=":10118500634_0" function="internal">
        <lane id=":10118500634_0_0" index="0" disallow="tram rail_urban rail rail_electric rail_fast ship container cable_car subway aircraft wheelchair scooter drone" speed="22.22" length="6.68" shape="4761.62,10663.63 4763.01,10662.07 4763.93,10660.96 4764.73,10659.77 4765.74,10657.94"/>
        <lane id=":10118500634_0_1" index="1" disallow="tram rail_urban rail rail_electric rail_fast ship container cable_car subway aircraft wheelchair scooter drone" speed="22.22" length="6.68" shape="4759.21,10661.52 4760.46,10660.13 4761.29,10659.14 4762.00,10658.08 4762.91,10656.45"/>
    </edge>
    <edge id=":10118500634_2" function="internal">
        <lane id=":10118500634_2_0" index="0" disallow="bicycle tram rail_urban rail rail_electric rail_fast ship container cable_car subway aircraft wheelchair scooter drone" speed="9.35" length="5.11" shape="4755.68,10659.05 4757.33,10658.27 4758.39,10657.55 4759.19,10656.55 4760.08,10654.96"/>
        <lane id=":10118500634_2_1" index="1" disallow="bicycle tram rail_urban rail rail_electric rail_fast ship container cable_car subway aircraft wheelchair scooter drone" speed="7.63" length="5.11" shape="4754.40,10656.12 4755.47,10655.61 4756.15,10655.14 4756.67,10654.50 4757.25,10653.47"/>
    </edge>
    <edge id=":10130362977_0" function="internal">
        <lane id=":10130362977_0_0" index="0" allow="pedestrian delivery bicycle" speed="5.12" length="5.08" shape="4562.89,10858.90 4561.99,10859.92 4560.96,10860.42 4559.80,10860.38 4558.50,10859.83"/>
    </edge>
    <edge id=":10130362977_1" function="internal">
        <lane id=":10130362977_1_0" index="0" allow="pedestrian delivery bicycle" speed="5.56" length="9.37" shape="4562.89,10858.90 4557.88,10866.82"/>
    </edge>
    <edge id=":10130362977_2" function="internal">
        <lane id=":10130362977_2_0" index="0" allow="pedestrian delivery bicycle" speed="5.56" length="9.29" shape="4560.61,10868.49 4565.58,10860.64"/>
    </edge>
    <edge id=":10130362977_3" function="internal">
        <lane id=":10130362977_3_0" index="0" allow="pedestrian delivery bicycle" speed="5.56" length="10.21" shape="4560.61,10868.49 4561.74,10865.93 4561.77,10863.64 4560.69,10861.60 4558.50,10859.83"/>
    </edge>
    <edge id=":10130362977_4" function="internal">
        <lane id=":10130362977_4_0" index="0" allow="pedestrian delivery bicycle" speed="5.01" length="5.01" shape="4556.85,10862.57 4557.92,10863.44 4558.45,10864.44 4558.44,10865.56 4557.88,10866.82"/>
    </edge>
    <edge id=":10130362977_5" function="internal">
        <lane id=":10130362977_5_0" index="0" allow="pedestrian delivery bicycle" speed="5.56" length="10.12" shape="4556.85,10862.57 4559.42,10863.66 4561.73,10863.71 4563.78,10862.70 4565.58,10860.64"/>
    </edge>
    <edge id=":10130362980_0" function="internal">
        <lane id=":10130362980_0_0" index="0" allow="pedestrian delivery bicycle" speed="5.56" length="4.80" shape="4573.44,10844.38 4572.29,10844.81 4571.15,10844.89 4570.01,10844.64 4568.89,10844.05"/>
    </edge>
    <edge id=":10130362980_1" function="internal">
        <lane id=":10130362980_1_0" index="0" allow="pedestrian delivery bicycle" speed="5.56" length="8.78" shape="4573.44,10844.38 4571.30,10845.73 4570.15,10847.07 4569.27,10848.72 4567.98,10851.00"/>
    </edge>
    <edge id=":10130362980_2" function="internal">
        <lane id=":10130362980_2_0" index="0" allow="pedestrian delivery bicycle" speed="5.56" length="7.16" shape="4570.67,10852.73 4572.30,10850.35 4573.65,10848.73 4574.71,10847.86 4575.50,10847.74"/>
    </edge>
    <edge id=":10130362980_3" function="internal">
        <lane id=":10130362980_3_0" index="0" allow="pedestrian delivery bicycle" speed="5.56" length="10.05" shape="4570.67,10852.73 4571.82,10850.23 4571.90,10847.96 4570.93,10845.90 4568.89,10844.05"/>
    </edge>
    <edge id=":10130362980_4" function="internal">
        <lane id=":10130362980_4_0" index="0" allow="pedestrian delivery bicycle" speed="5.07" length="4.97" shape="4567.10,10846.70 4568.11,10847.62 4568.59,10848.63 4568.55,10849.76 4567.98,10851.00"/>
    </edge>
    <edge id=":10130362980_5" function="internal">
        <lane id=":10130362980_5_0" index="0" allow="pedestrian delivery bicycle" speed="5.56" length="8.66" shape="4567.10,10846.70 4569.34,10847.65 4571.14,10847.53 4573.02,10847.25 4575.50,10847.74"/>
    </edge>
    <edge id=":10282769905_0" function="internal">
        <lane id=":10282769905_0_0" index="0" allow="delivery" speed="6.63" length="9.18" shape="4620.06,10888.26 4618.16,10886.65 4617.21,10884.79 4617.21,10882.70 4618.17,10880.37"/>
    </edge>
    <edge id=":10282769905_1" function="internal">
        <lane id=":10282769905_1_0" index="0" allow="delivery" speed="13.89" length="9.49" shape="4620.06,10888.26 4612.08,10883.11"/>
    </edge>
    <edge id=":10282769905_2" function="internal">
        <lane id=":10282769905_2_0" index="0" allow="bus delivery" speed="6.49" length="9.03" shape="4610.66,10892.76 4612.24,10890.86 4614.05,10889.92 4616.09,10889.96 4618.35,10890.97"/>
    </edge>
    <edge id=":10282769905_3" function="internal">
        <lane id=":10282769905_3_0" index="0" disallow="pedestrian bicycle tram rail_urban rail rail_electric rail_fast ship container cable_car subway aircraft wheelchair scooter drone" speed="22.22" length="14.49" shape="4610.66,10892.76 4618.17,10880.37"/>
    </edge>
    <edge id=":10282769905_4" function="internal">
        <lane id=":10282769905_4_0" index="0" disallow="pedestrian bicycle tram rail_urban rail rail_electric rail_fast ship container cable_car subway aircraft wheelchair scooter drone" speed="7.10" length="10.62" shape="4610.66,10892.76 4612.48,10889.34 4613.32,10886.60 4613.19,10884.52 4612.08,10883.11"/>
    </edge>
    <edge id=":10282769905_5" function="internal">
        <lane id=":10282769905_5_0" index="0" allow="bus delivery" speed="13.89" length="9.59" shape="4610.30,10885.77 4618.35,10890.97"/>
    </edge>
    <edge id=":10282769905_6" function="internal">
        <lane id=":10282769905_6_0" index="0" disallow="pedestrian bicycle tram rail_urban rail rail_electric rail_fast ship container cable_car subway aircraft wheelchair scooter drone" speed="6.85" length="1.13" shape="4610.30,10885.77 4611.38,10886.09"/>
    </edge>
    <edge id=":10282769905_7" function="internal">
        <lane id=":10282769905_7_0" index="0" disallow="pedestrian bicycle tram rail_urban rail rail_electric rail_fast ship container cable_car subway aircraft wheelchair scooter drone" speed="6.85" length="9.46" shape="4611.38,10886.09 4612.06,10886.29 4613.96,10885.56 4616.00,10883.59 4618.17,10880.37"/>
    </edge>
    <edge id=":10282769907_0" function="internal">
        <lane id=":10282769907_0_0" index="0" disallow="pedestrian bicycle tram rail_urban rail rail_electric rail_fast ship container cable_car subway aircraft wheelchair scooter drone" speed="22.22" length="2.25" shape="4581.17,10932.50 4581.56,10931.96 4581.87,10931.62 4582.21,10931.31 4582.70,10930.86"/>
    </edge>
    <edge id=":10282769907_1" function="internal">
        <lane id=":10282769907_1_0" index="0" disallow="pedestrian bicycle tram rail_urban rail rail_electric rail_fast ship container cable_car subway aircraft wheelchair scooter drone" speed="22.22" length="2.99" shape="4578.53,10930.70 4579.01,10929.95 4579.30,10929.42 4579.56,10928.87 4579.94,10928.07"/>
    </edge>
    <edge id=":1123386062_0" function="internal">
        <lane id=":1123386062_0_0" index="0" disallow="pedestrian bicycle tram rail_urban rail rail_electric rail_fast ship container cable_car subway aircraft wheelchair scooter drone" speed="11.11" length="15.47" shape="4567.47,10750.10 4562.84,10751.99 4559.25,10753.57 4556.11,10754.36 4552.84,10753.90"/>
    </edge>
    <edge id=":1123386062_1" function="internal">
        <lane id=":1123386062_1_0" index="0" disallow="pedestrian bicycle tram rail_urban rail rail_electric rail_fast ship container cable_car subway aircraft wheelchair scooter drone" speed="12.50" length="15.92" shape="4568.33,10757.21 4563.55,10755.49 4559.67,10754.90 4556.24,10754.64 4552.84,10753.90"/>
    </edge>
    <edge id=":12129307874_0" function="internal">
        <lane id=":12129307874_0_0" index="0" disallow="pedestrian bicycle tram rail_urban rail rail_electric rail_fast ship container cable_car subway aircraft wheelchair scooter drone" speed="19.45" length="3.00" shape="4732.50,10803.96 4729.57,10803.32"/>
    </edge>
    <edge id=":12129307874_1" function="internal">
        <lane id=":12129307874_1_0" index="0" disallow="pedestrian bicycle tram rail_urban rail rail_electric rail_fast ship container cable_car subway aircraft wheelchair scooter drone" speed="16.67" length="3.00" shape="4731.79,10807.10 4728.86,10806.44"/>
        <lane id=":12129307874_1_1" index="1" disallow="pedestrian bicycle tram rail_urban rail rail_electric rail_fast ship container cable_car subway aircraft wheelchair scooter drone" speed="16.67" length="3.00" shape="4731.08,10810.22 4728.15,10809.56"/>
        <lane id=":12129307874_1_2" index="2" disallow="pedestrian bicycle tram rail_urban rail rail_electric rail_fast ship container cable_car subway aircraft wheelchair scooter drone" speed="16.67" length="3.00" shape="4730.37,10813.34 4727.44,10812.68"/>
    </edge>
    <edge id=":12196449734_0" function="internal">
        <lane id=":12196449734_0_0" index="0" disallow="pedestrian bicycle tram rail_urban rail rail_electric rail_fast ship container cable_car subway aircraft wheelchair scooter drone" speed="6.42" length="9.04" shape="4716.89,10710.31 4714.86,10708.87 4713.80,10707.13 4713.73,10705.11 4714.64,10702.79"/>
    </edge>
    <edge id=":12196449734_1" function="internal">
        <lane id=":12196449734_1_0" index="0" disallow="pedestrian bicycle tram rail_urban rail rail_electric rail_fast ship container cable_car subway aircraft wheelchair scooter drone" speed="22.22" length="14.45" shape="4716.89,10710.31 4703.93,10703.90"/>
    </edge>
    <edge id=":12196449734_2" function="internal">
        <lane id=":12196449734_2_0" index="0" disallow="pedestrian bicycle tram rail_urban rail rail_electric rail_fast ship container cable_car subway aircraft wheelchair scooter drone" speed="22.22" length="11.45" shape="4709.46,10712.86 4714.64,10702.79"/>
        <lane id=":12196449734_2_1" index="1" disallow="pedestrian bicycle tram rail_urban rail rail_electric rail_fast ship container cable_car subway aircraft wheelchair scooter drone" speed="22.22" length="11.45" shape="4706.56,10711.51 4711.85,10701.21"/>
    </edge>
    <edge id=":12196449734_4" function="internal">
        <lane id=":12196449734_4_0" index="0" disallow="pedestrian bicycle tram rail_urban rail rail_electric rail_fast ship container cable_car subway aircraft wheelchair scooter drone" speed="6.57" length="9.16" shape="4706.56,10711.51 4707.30,10709.08 4707.11,10707.00 4705.99,10705.28 4703.93,10703.90"/>
    </edge>
    <edge id=":12196449735_0" function="internal">
        <lane id=":12196449735_0_0" index="0" disallow="pedestrian bicycle tram rail_urban rail rail_electric rail_fast ship container cable_car subway aircraft wheelchair scooter drone" speed="22.22" length="7.22" shape="4676.92,10684.79 4673.56,10691.19"/>
        <lane id=":12196449735_0_1" index="1" disallow="pedestrian bicycle tram rail_urban rail rail_electric rail_fast ship container cable_car subway aircraft wheelchair scooter drone" speed="22.22" length="7.22" shape="4679.75,10686.28 4676.40,10692.68"/>
    </edge>
    <edge id=":12196449735_2" function="internal">
        <lane id=":12196449735_2_0" index="0" disallow="pedestrian bicycle tram rail_urban rail rail_electric rail_fast ship container cable_car subway aircraft wheelchair scooter drone" speed="5.59" length="6.20" shape="4682.17,10693.53 4679.94,10692.59 4678.24,10692.13 4677.06,10692.16 4676.40,10692.68"/>
    </edge>
    <edge id=":12697864643_0" function="internal">
        <lane id=":12697864643_0_0" index="0" allow="delivery" speed="6.23" length="4.44" shape="4576.11,10744.82 4575.71,10745.92 4575.10,10746.82 4574.30,10747.51 4573.30,10748.01"/>
    </edge>
    <edge id=":12697864643_1" function="internal">
        <lane id=":12697864643_1_0" index="0" allow="delivery" speed="3.04" length="1.68" shape="4578.02,10746.30 4578.64,10747.87"/>
    </edge>
    <edge id=":12697864643_2" function="internal">
        <lane id=":12697864643_2_0" index="0" disallow="pedestrian bicycle tram rail_urban rail rail_electric rail_fast ship container cable_car subway aircraft wheelchair scooter drone" speed="8.33" length="5.03" shape="4578.02,10746.30 4573.30,10748.01"/>
        <lane id=":12697864643_2_1" index="1" disallow="pedestrian bicycle tram rail_urban rail rail_electric rail_fast ship container cable_car subway aircraft wheelchair scooter drone" speed="8.33" length="5.03" shape="4579.11,10749.31 4574.39,10751.02"/>
    </edge>
    <edge id=":12697864646_0" function="internal">
        <lane id=":12697864646_0_0" index="0" allow="pedestrian delivery bicycle" speed="5.56" length="9.47" shape="4519.24,10705.99 4515.81,10714.82"/>
    </edge>
    <edge id=":12697864646_1" function="internal">
        <lane id=":12697864646_1_0" index="0" allow="pedestrian delivery bicycle" speed="5.56" length="10.58" shape="4519.24,10705.99 4518.56,10708.85 4519.00,10711.16 4520.55,10712.94 4523.21,10714.17"/>
    </edge>
    <edge id=":12697864646_2" function="internal">
        <lane id=":12697864646_2_0" index="0" allow="pedestrian delivery bicycle" speed="4.95" length="5.10" shape="4524.13,10711.11 4522.85,10710.51 4522.10,10709.65 4521.89,10708.54 4522.21,10707.16"/>
    </edge>
    <edge id=":12697864646_3" function="internal">
        <lane id=":12697864646_3_0" index="0" allow="pedestrian delivery bicycle" speed="5.56" length="10.22" shape="4524.13,10711.11 4521.29,10710.64 4518.95,10711.11 4517.13,10712.50 4515.81,10714.82"/>
    </edge>
    <edge id=":12697864646_4" function="internal">
        <lane id=":12697864646_4_0" index="0" allow="pedestrian delivery bicycle" speed="5.31" length="5.34" shape="4518.80,10715.96 4519.47,10714.80 4520.44,10714.12 4521.68,10713.91 4523.21,10714.17"/>
    </edge>
    <edge id=":12697864646_5" function="internal">
        <lane id=":12697864646_5_0" index="0" allow="pedestrian delivery bicycle" speed="5.56" length="9.44" shape="4518.80,10715.96 4522.21,10707.16"/>
    </edge>
    <edge id=":13514722972_0" function="internal">
        <lane id=":13514722972_0_0" index="0" allow="pedestrian delivery bicycle" speed="5.56" length="5.00" shape="4515.56,10715.46 4513.70,10720.11"/>
    </edge>
    <edge id=":13514722972_1" function="internal">
        <lane id=":13514722972_1_0" index="0" allow="pedestrian delivery bicycle" speed="5.56" length="5.00" shape="4516.67,10721.30 4518.53,10716.66"/>
    </edge>
    <edge id=":13514722977_0" function="internal">
        <lane id=":13514722977_0_0" index="0" allow="pedestrian delivery bicycle" speed="4.56" length="4.11" shape="4516.59,10725.71 4515.31,10725.15 4514.50,10724.50 4514.16,10723.75 4514.29,10722.91"/>
    </edge>
    <edge id=":13514722977_1" function="internal">
        <lane id=":13514722977_1_0" index="0" disallow="tram rail_urban rail rail_electric rail_fast ship container cable_car subway aircraft wheelchair scooter drone" speed="13.89" length="6.39" shape="4516.59,10725.71 4510.53,10723.70"/>
    </edge>
    <edge id=":13514722977_2" function="internal">
        <lane id=":13514722977_2_0" index="0" allow="pedestrian delivery bicycle" speed="5.56" length="5.09" shape="4512.43,10727.65 4514.29,10722.91"/>
    </edge>
    <edge id=":13514722977_3" function="internal">
        <lane id=":13514722977_3_0" index="0" allow="pedestrian delivery bicycle" speed="4.99" length="5.05" shape="4512.43,10727.65 4512.73,10726.29 4512.52,10725.18 4511.78,10724.31 4510.53,10723.70"/>
    </edge>
    <edge id=":1472878464_0" function="internal">
        <lane id=":1472878464_0_0" index="0" disallow="pedestrian bicycle tram rail_urban rail rail_electric rail_fast ship container cable_car subway aircraft wheelchair scooter drone" speed="6.10" length="7.75" shape="4611.91,10883.00 4610.67,10881.75 4610.22,10880.19 4610.56,10878.32 4611.70,10876.14"/>
    </edge>
    <edge id=":1472878464_1" function="internal">
        <lane id=":1472878464_1_0" index="0" disallow="pedestrian bicycle tram rail_urban rail rail_electric rail_fast ship container cable_car subway aircraft wheelchair scooter drone" speed="22.22" length="9.56" shape="4611.91,10883.00 4603.84,10877.88"/>
    </edge>
    <edge id=":1472878464_2" function="internal">
        <lane id=":1472878464_2_0" index="0" disallow="pedestrian bicycle tram rail_urban rail rail_electric rail_fast ship container cable_car subway aircraft wheelchair scooter drone" speed="5.94" length="7.64" shape="4604.01,10888.40 4605.49,10886.40 4607.00,10885.28 4608.55,10885.03 4610.13,10885.66"/>
    </edge>
    <edge id=":1472878464_3" function="internal">
        <lane id=":1472878464_3_0" index="0" disallow="pedestrian bicycle tram rail_urban rail rail_electric rail_fast ship container cable_car subway aircraft wheelchair scooter drone" speed="22.22" length="14.47" shape="4604.01,10888.40 4611.70,10876.14"/>
    </edge>
    <edge id=":1472878464_4" function="internal">
        <lane id=":1472878464_4_0" index="0" disallow="pedestrian bicycle tram rail_urban rail rail_electric rail_fast ship container cable_car subway aircraft wheelchair scooter drone" speed="7.37" length="11.79" shape="4604.01,10888.40 4605.72,10884.88 4606.26,10881.96 4605.63,10879.62 4603.84,10877.88"/>
    </edge>
    <edge id=":1472878464_5" function="internal">
        <lane id=":1472878464_5_0" index="0" disallow="pedestrian bicycle tram rail_urban rail rail_electric rail_fast ship container cable_car subway aircraft wheelchair scooter drone" speed="22.22" length="9.43" shape="4602.17,10880.61 4610.13,10885.66"/>
    </edge>
    <edge id=":1472878464_6" function="internal">
        <lane id=":1472878464_6_0" index="0" disallow="pedestrian bicycle tram rail_urban rail rail_electric rail_fast ship container cable_car subway aircraft wheelchair scooter drone" speed="7.41" length="2.49" shape="4602.17,10880.61 4604.53,10881.41"/>
    </edge>
    <edge id=":1472878464_7" function="internal">
        <lane id=":1472878464_7_0" index="0" disallow="pedestrian bicycle tram rail_urban rail rail_electric rail_fast ship container cable_car subway aircraft wheelchair scooter drone" speed="7.41" length="9.26" shape="4604.53,10881.41 4606.91,10880.93 4609.30,10879.18 4611.70,10876.14"/>
    </edge>
    <edge id=":1723790725_0" function="internal">
        <lane id=":1723790725_0_0" index="0" disallow="pedestrian bicycle tram rail_urban rail rail_electric rail_fast ship container cable_car subway aircraft wheelchair scooter drone" speed="14.95" length="14.74" shape="4586.85,10786.38 4590.95,10788.36 4593.59,10790.63 4595.49,10793.23 4597.36,10796.16"/>
    </edge>
    <edge id=":1723790725_1" function="internal">
        <lane id=":1723790725_1_0" index="0" disallow="pedestrian bicycle tram rail_urban rail rail_electric rail_fast ship container cable_car subway aircraft wheelchair scooter drone" speed="16.67" length="14.76" shape="4586.85,10786.38 4600.60,10791.62"/>
        <lane id=":1723790725_1_1" index="1" disallow="pedestrian bicycle tram rail_urban rail rail_electric rail_fast ship container cable_car subway aircraft wheelchair scooter drone" speed="16.67" length="14.76" shape="4587.94,10783.37 4601.73,10788.62"/>
        <lane id=":1723790725_1_2" index="2" disallow="pedestrian bicycle tram rail_urban rail rail_electric rail_fast ship container cable_car subway aircraft wheelchair scooter drone" speed="16.67" length="14.76" shape="4589.03,10780.36 4602.87,10785.63"/>
    </edge>
    <edge id=":1723790753_0" function="internal">
        <lane id=":1723790753_0_0" index="0" disallow="pedestrian bicycle tram rail_urban rail rail_electric rail_fast ship container cable_car subway aircraft wheelchair scooter drone" speed="13.00" length="16.29" shape="4605.15,10814.96 4605.65,10818.97 4605.30,10822.90 4604.11,10826.74 4602.07,10830.51"/>
    </edge>
    <edge id=":1723790753_1" function="internal">
        <lane id=":1723790753_1_0" index="0" disallow="pedestrian bicycle tram rail_urban rail rail_electric rail_fast ship container cable_car subway aircraft wheelchair scooter drone" speed="22.22" length="15.78" shape="4610.45,10817.16 4602.07,10830.51"/>
        <lane id=":1723790753_1_1" index="1" disallow="pedestrian bicycle tram rail_urban rail rail_electric rail_fast ship container cable_car subway aircraft wheelchair scooter drone" speed="22.22" length="15.78" shape="4613.14,10818.88 4604.74,10832.27"/>
    </edge>
    <edge id=":2385133857_0" function="internal">
        <lane id=":2385133857_0_0" index="0" disallow="tram rail_urban rail rail_electric rail_fast ship container cable_car subway aircraft wheelchair scooter drone" speed="22.22" length="10.60" shape="4734.62,10723.14 4734.84,10720.12 4735.15,10718.06 4735.67,10716.04 4736.53,10713.13"/>
        <lane id=":2385133857_0_1" index="1" disallow="tram rail_urban rail rail_electric rail_fast ship container cable_car subway aircraft wheelchair scooter drone" speed="22.22" length="10.60" shape="4731.43,10722.97 4731.66,10719.73 4731.98,10717.53 4732.54,10715.37 4733.45,10712.24"/>
    </edge>
    <edge id=":2385133857_2" function="internal">
        <lane id=":2385133857_2_0" index="0" disallow="pedestrian bicycle tram rail_urban rail rail_electric rail_fast ship container cable_car subway aircraft wheelchair scooter drone" speed="8.03" length="9.72" shape="4731.43,10722.97 4731.22,10720.59 4730.34,10718.50 4728.77,10716.72 4726.52,10715.24"/>
    </edge>
    <edge id=":2385133858_0" function="internal">
        <lane id=":2385133858_0_0" index="0" disallow="tram rail_urban rail rail_electric rail_fast ship container cable_car subway aircraft wheelchair scooter drone" speed="10.90" length="8.00" shape="4751.12,10799.71 4748.63,10798.84 4746.69,10798.41 4745.14,10797.61 4743.77,10795.62"/>
        <lane id=":2385133858_0_1" index="1" disallow="tram rail_urban rail rail_electric rail_fast ship container cable_car subway aircraft wheelchair scooter drone" speed="22.22" length="8.00" shape="4749.74,10802.60 4747.71,10801.99 4746.14,10801.96 4744.67,10801.78 4742.96,10800.69"/>
    </edge>
    <edge id=":2385133858_2" function="internal">
        <lane id=":2385133858_2_0" index="0" disallow="pedestrian bicycle tram rail_urban rail rail_electric rail_fast ship container cable_car subway aircraft wheelchair scooter drone" speed="8.29" length="5.80" shape="4748.36,10805.48 4746.81,10804.89 4745.64,10804.80 4744.44,10805.10 4742.81,10805.66"/>
    </edge>
    <edge id=":307408088_0" function="internal">
        <lane id=":307408088_0_0" index="0" disallow="pedestrian bicycle tram rail_urban rail rail_electric rail_fast ship container cable_car subway aircraft wheelchair scooter drone" speed="6.49" length="9.00" shape="4559.82,10894.31 4558.20,10896.10 4556.37,10896.93 4554.32,10896.80 4552.06,10895.70"/>
    </edge>
    <edge id=":307408088_1" function="internal">
        <lane id=":307408088_1_0" index="0" disallow="pedestrian bicycle tram rail_urban rail rail_electric rail_fast ship container cable_car subway aircraft wheelchair scooter drone" speed="22.22" length="14.40" shape="4559.82,10894.31 4551.87,10906.33"/>
        <lane id=":307408088_1_1" index="1" disallow="pedestrian bicycle tram rail_urban rail rail_electric rail_fast ship container cable_car subway aircraft wheelchair scooter drone" speed="22.22" length="14.40" shape="4562.49,10896.08 4554.54,10908.09"/>
    </edge>
    <edge id=":307408088_3" function="internal">
        <lane id=":307408088_3_0" index="0" disallow="pedestrian bicycle tram rail_urban rail rail_electric rail_fast ship container cable_car subway aircraft wheelchair scooter drone" speed="6.64" length="9.41" shape="4550.11,10898.25 4552.07,10899.98 4553.01,10901.91 4552.95,10904.02 4551.87,10906.33"/>
    </edge>
    <edge id=":307408116_0" function="internal">
        <lane id=":307408116_0_0" index="0" allow="pedestrian delivery bicycle" speed="6.88" length="8.94" shape="4544.94,10886.97 4543.57,10888.14 4541.74,10888.55 4539.46,10888.20 4536.73,10887.08"/>
    </edge>
    <edge id=":307408116_1" function="internal">
        <lane id=":307408116_1_0" index="0" allow="pedestrian delivery bicycle" speed="9.72" length="13.12" shape="4544.94,10886.97 4536.82,10897.28"/>
    </edge>
    <edge id=":307408116_2" function="internal">
        <lane id=":307408116_2_0" index="0" allow="pedestrian delivery bicycle" speed="7.25" length="11.87" shape="4544.94,10886.97 4543.68,10889.56 4543.78,10892.07 4545.22,10894.50 4548.02,10896.85"/>
    </edge>
    <edge id=":307408116_3" function="internal">
        <lane id=":307408116_3_0" index="0" allow="pedestrian delivery bicycle" speed="5.42" length="6.16" shape="4549.39,10893.92 4547.87,10892.67 4547.05,10891.41 4546.93,10890.14 4547.52,10888.86"/>
    </edge>
    <edge id=":307408116_4" function="internal">
        <lane id=":307408116_4_0" index="0" disallow="tram rail_urban rail rail_electric rail_fast ship container cable_car subway aircraft wheelchair scooter drone" speed="22.22" length="14.40" shape="4549.39,10893.92 4546.28,10892.00 4543.17,10890.31 4540.00,10888.71 4536.73,10887.08"/>
    </edge>
    <edge id=":307408116_5" function="internal">