<?xml version="1.0" encoding="UTF-8"?>

<!-- generated on 2026-04-07T16:32:12.902523+05:30 by Eclipse SUMO netconvert 1.26.0
<netconvertConfiguration xmlns:xsi="http://www.w3.org/2001/XMLSchema-instance" xsi:noNamespaceSchemaLocation="http://sumo.dlr.de/xsd/netconvertConfiguration.xsd">

    <input>
        <osm-files value="osm\map.osm"/>
    </input>

    <output>
        <output-file value="sumo\network.net.xml"/>
    </output>

    <projection>
        <proj.utm value="true"/>
    </projection>

</netconvertConfiguration>
-->

<net version="1.20" junctionCornerDetail="5" limitTurnSpeed="5.50" xmlns:xsi="http://www.w3.org/2001/XMLSchema-instance" xsi:noNamespaceSchemaLocation="http://sumo.dlr.de/xsd/net_file.xsd">

    <location netOffset="-779074.73,-1438022.85" convBoundary="0.00,0.00,2530.66,2385.69" origBoundary="77.572878,12.857993,77.783066,13.041487" projParameter="+proj=utm +zone=43 +ellps=WGS84 +datum=WGS84 +units=m +no_defs"/>

    <type id="highway.footway" priority="1" numLanes="1" speed="2.78" allow="pedestrian" oneway="1" width="2.00"/>
    <type id="highway.primary" priority="12" numLanes="2" speed="27.78" disallow="tram rail_urban rail rail_electric rail_fast ship container cable_car subway aircraft wheelchair scooter drone" oneway="0"/>
    <type id="highway.trunk" priority="13" numLanes="2" speed="27.78" disallow="pedestrian bicycle tram rail_urban rail rail_electric rail_fast ship container cable_car subway aircraft wheelchair scooter drone" oneway="0"/>
    <type id="highway.trunk_link" priority="8" numLanes="1" speed="22.22" disallow="pedestrian bicycle tram rail_urban rail rail_electric rail_fast ship container cable_car subway aircraft wheelchair scooter drone" oneway="0"/>

    <edge id=":11645479499_0" function="internal">
        <lane id=":11645479499_0_0" index="0" disallow="bicycle tram rail_urban rail rail_electric rail_fast ship container cable_car subway aircraft wheelchair scooter drone" speed="5.77" length="6.68" shape="1211.82,2146.36 1214.29,2146.20 1216.06,2145.76 1217.14,2145.03 1217.52,2144.03"/>
    </edge>
    <edge id=":11645479499_1" function="internal">
        <lane id=":11645479499_1_0" index="0" disallow="tram rail_urban rail rail_electric rail_fast ship container cable_car subway aircraft wheelchair scooter drone" speed="27.78" length="14.32" shape="1211.82,2146.36 1226.16,2146.34"/>
        <lane id=":11645479499_1_1" index="1" disallow="tram rail_urban rail rail_electric rail_fast ship container cable_car subway aircraft wheelchair scooter drone" speed="27.78" length="14.32" shape="1211.84,2149.56 1226.15,2149.54"/>
    </edge>
    <edge id=":11645479499_3" function="internal">
        <lane id=":11645479499_3_0" index="0" disallow="bicycle tram rail_urban rail rail_electric rail_fast ship container cable_car subway aircraft wheelchair scooter drone" speed="16.67" length="11.02" shape="1217.19,2155.04 1217.52,2144.03"/>
        <lane id=":11645479499_3_1" index="1" disallow="bicycle tram rail_urban rail rail_electric rail_fast ship container cable_car subway aircraft wheelchair scooter drone" speed="16.67" length="11.02" shape="1220.39,2155.14 1220.72,2144.12"/>
    </edge>
    <edge id=":11645479499_5" function="internal">
        <lane id=":11645479499_5_0" index="0" disallow="bicycle tram rail_urban rail rail_electric rail_fast ship container cable_car subway aircraft wheelchair scooter drone" speed="6.59" length="9.10" shape="1220.39,2155.14 1220.81,2152.68 1221.91,2150.93 1223.69,2149.88 1226.15,2149.54"/>
    </edge>
    <edge id=":11645479500_0" function="internal">
        <lane id=":11645479500_0_0" index="0" disallow="tram rail_urban rail rail_electric rail_fast ship container cable_car subway aircraft wheelchair scooter drone" speed="27.78" length="14.45" width="2.50" shape="1226.36,2141.71 1211.95,2141.37"/>
        <lane id=":11645479500_0_1" index="1" disallow="tram rail_urban rail rail_electric rail_fast ship container cable_car subway aircraft wheelchair scooter drone" speed="27.78" length="14.45" width="2.50" shape="1226.40,2138.51 1211.93,2138.87"/>
    </edge>
    <edge id=":11645479500_2" function="internal">
        <lane id=":11645479500_2_0" index="0" disallow="pedestrian bicycle tram rail_urban rail rail_electric rail_fast ship container cable_car subway aircraft wheelchair scooter drone" speed="6.58" length="10.52" width="5.00" shape="1226.40,2138.51 1223.00,2138.13 1220.72,2137.05 1219.57,2135.28 1219.55,2132.81"/>
    </edge>
    <edge id=":11645479500_3" function="internal">
        <lane id=":11645479500_3_0" index="0" disallow="bicycle tram rail_urban rail rail_electric rail_fast ship container cable_car subway aircraft wheelchair scooter drone" speed="5.64" length="6.72" width="2.50" shape="1217.53,2143.83 1217.21,2142.73 1216.17,2141.95 1214.42,2141.50 1211.95,2141.37"/>
        <lane id=":11645479500_3_1" index="1" disallow="bicycle tram rail_urban rail rail_electric rail_fast ship container cable_car subway aircraft wheelchair scooter drone" speed="7.14" length="11.42" width="2.50" shape="1220.73,2143.92 1220.23,2141.67 1218.60,2140.08 1215.83,2139.15 1211.93,2138.87"/>
    </edge>
    <edge id=":11645479500_5" function="internal">
        <lane id=":11645479500_5_0" index="0" disallow="pedestrian bicycle tram rail_urban rail rail_electric rail_fast ship container cable_car subway aircraft wheelchair scooter drone" speed="19.45" length="11.26" width="5.00" shape="1220.73,2143.92 1220.48,2140.52 1219.85,2138.11 1219.36,2135.83 1219.55,2132.81"/>
    </edge>
    <edge id=":11645479502_0" function="internal">
        <lane id=":11645479502_0_0" index="0" disallow="pedestrian bicycle tram rail_urban rail rail_electric rail_fast ship container cable_car subway aircraft wheelchair scooter drone" speed="5.44" length="6.07" shape="1190.12,2143.39 1190.46,2144.00 1191.51,2144.44 1193.26,2144.71 1195.72,2144.81"/>
    </edge>
    <edge id=":11645479502_1" function="internal">
        <lane id=":11645479502_1_0" index="0" disallow="pedestrian bicycle tram rail_urban rail rail_electric rail_fast ship container cable_car subway aircraft wheelchair scooter drone" speed="22.22" length="13.42" shape="1190.12,2143.39 1189.81,2156.81"/>
    </edge>
    <edge id=":11645479502_2" function="internal">
        <lane id=":11645479502_2_0" index="0" disallow="tram rail_urban rail rail_electric rail_fast ship container cable_car subway aircraft wheelchair scooter drone" speed="16.67" length="10.69" shape="1185.03,2144.75 1195.72,2144.81"/>
        <lane id=":11645479502_2_1" index="1" disallow="tram rail_urban rail rail_electric rail_fast ship container cable_car subway aircraft wheelchair scooter drone" speed="16.67" length="10.69" shape="1185.01,2147.95 1195.70,2148.01"/>
        <lane id=":11645479502_2_2" index="2" disallow="tram rail_urban rail rail_electric rail_fast ship container cable_car subway aircraft wheelchair scooter drone" speed="16.67" length="10.69" shape="1184.99,2151.15 1195.69,2151.21"/>
    </edge>
    <edge id=":11645479502_5" function="internal">
        <lane id=":11645479502_5_0" index="0" disallow="pedestrian bicycle tram rail_urban rail rail_electric rail_fast ship container cable_car subway aircraft wheelchair scooter drone" speed="6.30" length="8.50" shape="1184.99,2151.15 1187.15,2151.51 1188.67,2152.58 1189.56,2154.34 1189.81,2156.81"/>
    </edge>
    <edge id=":11645479503_0" function="internal">
        <lane id=":11645479503_0_0" index="0" disallow="pedestrian bicycle tram rail_urban rail rail_electric rail_fast ship container cable_car subway aircraft wheelchair scooter drone" speed="5.61" length="6.54" shape="1196.08,2141.49 1193.49,2141.61 1191.63,2141.93 1190.51,2142.46 1190.13,2143.19"/>
    </edge>
    <edge id=":11645479503_1" function="internal">
        <lane id=":11645479503_1_0" index="0" disallow="tram rail_urban rail rail_electric rail_fast ship container cable_car subway aircraft wheelchair scooter drone" speed="27.78" length="9.19" shape="1196.08,2141.49 1186.91,2141.92"/>
        <lane id=":11645479503_1_1" index="1" disallow="tram rail_urban rail rail_electric rail_fast ship container cable_car subway aircraft wheelchair scooter drone" speed="27.78" length="9.19" shape="1196.06,2138.99 1186.86,2138.72"/>
    </edge>
    <edge id=":11645479503_3" function="internal">
        <lane id=":11645479503_3_0" index="0" disallow="pedestrian bicycle tram rail_urban rail rail_electric rail_fast ship container cable_car subway aircraft wheelchair scooter drone" speed="20.69" length="10.12" shape="1189.91,2133.23 1190.72,2136.04 1190.74,2138.08 1190.39,2140.18 1190.13,2143.19"/>
    </edge>
    <edge id=":11645479503_4" function="internal">
        <lane id=":11645479503_4_0" index="0" disallow="pedestrian bicycle tram rail_urban rail rail_electric rail_fast ship container cable_car subway aircraft wheelchair scooter drone" speed="5.63" length="7.94" shape="1189.91,2133.23 1190.51,2135.60 1190.20,2137.31 1188.99,2138.35 1186.86,2138.72"/>
    </edge>
    <edge id=":11954212343_0" function="internal">
        <lane id=":11954212343_0_0" index="0" disallow="tram rail_urban rail rail_electric rail_fast ship container cable_car subway aircraft wheelchair scooter drone" speed="16.67" length="0.30" shape="1172.18,2145.72 1172.48,2145.70"/>
        <lane id=":11954212343_0_1" index="1" disallow="tram rail_urban rail rail_electric rail_fast ship container cable_car subway aircraft wheelchair scooter drone" speed="16.67" length="0.30" shape="1172.42,2148.91 1172.72,2148.89"/>
        <lane id=":11954212343_0_2" index="2" disallow="tram rail_urban rail rail_electric rail_fast ship container cable_car subway aircraft wheelchair scooter drone" speed="16.67" length="0.30" shape="1172.66,2152.10 1172.96,2152.08"/>
    </edge>
    <edge id=":12135774316_0" function="internal">
        <lane id=":12135774316_0_0" index="0" disallow="pedestrian bicycle tram rail_urban rail rail_electric rail_fast ship container cable_car subway aircraft wheelchair scooter drone" speed="16.67" length="5.03" shape="1220.92,2188.32 1220.96,2183.29"/>
        <lane id=":12135774316_0_1" index="1" disallow="pedestrian bicycle tram rail_urban rail rail_electric rail_fast ship container cable_car subway aircraft wheelchair scooter drone" speed="16.67" length="5.03" shape="1224.12,2188.35 1224.16,2183.32"/>
    </edge>
    <edge id=":12558291922_0" function="internal">
        <lane id=":12558291922_0_0" index="0" disallow="pedestrian bicycle tram rail_urban rail rail_electric rail_fast ship container cable_car subway aircraft wheelchair scooter drone" speed="6.01" length="9.52" width="4.00" shape="1194.24,2126.97 1191.46,2127.42 1189.80,2128.60 1189.28,2130.50 1189.88,2133.13"/>
    </edge>
    <edge id=":12558291922_1" function="internal">
        <lane id=":12558291922_1_0" index="0" disallow="pedestrian bicycle tram rail_urban rail rail_electric rail_fast ship container cable_car subway aircraft wheelchair scooter drone" speed="3.65" length="1.44" shape="1194.24,2126.97 1193.02,2126.20"/>
    </edge>
    <edge id=":12558291922_4" function="internal">
        <lane id=":12558291922_4_0" index="0" disallow="pedestrian bicycle tram rail_urban rail rail_electric rail_fast ship container cable_car subway aircraft wheelchair scooter drone" speed="3.65" length="3.23" shape="1193.02,2126.20 1192.60,2125.41 1192.98,2124.60 1194.15,2123.77"/>
    </edge>
    <edge id=":12558291922_2" function="internal">
        <lane id=":12558291922_2_0" index="0" disallow="pedestrian bicycle tram rail_urban rail rail_electric rail_fast ship container cable_car subway aircraft wheelchair scooter drone" speed="7.11" length="10.95" shape="1185.55,2119.15 1186.09,2121.26 1187.70,2122.73 1190.39,2123.57 1194.15,2123.77"/>
    </edge>
    <edge id=":12558291922_3" function="internal">
        <lane id=":12558291922_3_0" index="0" disallow="pedestrian bicycle tram rail_urban rail rail_electric rail_fast ship container cable_car subway aircraft wheelchair scooter drone" speed="22.22" length="14.73" width="4.00" shape="1185.55,2119.15 1185.97,2122.79 1187.03,2126.27 1188.43,2129.68 1189.88,2133.13"/>
    </edge>
    <edge id=":2703669948_0" function="internal">
        <lane id=":2703669948_0_0" index="0" disallow="pedestrian bicycle tram rail_urban rail rail_electric rail_fast ship container cable_car subway aircraft wheelchair scooter drone" speed="12.50" length="27.32" shape="1136.42,2151.43 1140.80,2150.68 1146.61,2149.20 1154.04,2147.57 1163.28,2146.39"/>
        <lane id=":2703669948_0_1" index="1" disallow="pedestrian bicycle tram rail_urban rail rail_electric rail_fast ship container cable_car subway aircraft wheelchair scooter drone" speed="12.50" length="27.32" shape="1136.42,2151.43 1163.52,2149.58"/>
        <lane id=":2703669948_0_2" index="2" disallow="pedestrian bicycle tram rail_urban rail rail_electric rail_fast ship container cable_car subway aircraft wheelchair scooter drone" speed="12.50" length="27.32" shape="1136.42,2151.43 1140.88,2151.68 1146.84,2152.39 1154.43,2152.96 1163.76,2152.77"/>
    </edge>
    <edge id=":2703669948_3" function="internal">
        <lane id=":2703669948_3_0" index="0" disallow="pedestrian bicycle tram rail_urban rail rail_electric rail_fast ship container cable_car subway aircraft wheelchair scooter drone" speed="12.50" length="27.63" shape="1136.42,2151.43 1144.83,2151.53 1151.95,2152.76 1157.77,2155.11 1162.29,2158.59"/>
        <lane id=":2703669948_3_1" index="1" disallow="pedestrian bicycle tram rail_urban rail rail_electric rail_fast ship container cable_car subway aircraft wheelchair scooter drone" speed="12.50" length="27.32" shape="1136.42,2151.43 1143.16,2151.81 1149.48,2153.64 1155.37,2156.94 1160.83,2161.69"/>
    </edge>
    <edge id=":2703669980_0" function="internal">
        <lane id=":2703669980_0_0" index="0" disallow="tram rail_urban rail rail_electric rail_fast ship container cable_car subway aircraft wheelchair scooter drone" speed="16.67" length="0.29" shape="1184.86,2144.77 1184.83,2144.75"/>
        <lane id=":2703669980_0_1" index="1" disallow="tram rail_urban rail rail_electric rail_fast ship container cable_car subway aircraft wheelchair scooter drone" speed="16.67" length="0.29" shape="1185.10,2147.96 1184.81,2147.95"/>
        <lane id=":2703669980_0_2" index="2" disallow="tram rail_urban rail rail_electric rail_fast ship container cable_car subway aircraft wheelchair scooter drone" speed="16.67" length="0.29" shape="1185.33,2151.16 1184.79,2151.15"/>
    </edge>
    <edge id=":3676182388_0" function="internal">
        <lane id=":3676182388_0_0" index="0" disallow="pedestrian bicycle tram rail_urban rail rail_electric rail_fast ship container cable_car subway aircraft wheelchair scooter drone" speed="22.22" length="0.37" shape="1189.76,2158.63 1189.76,2158.73 1189.75,2158.81 1189.74,2158.88 1189.71,2158.99"/>
    </edge>
    <edge id=":3676182392_0" function="internal">
        <lane id=":3676182392_0_0" index="0" disallow="tram rail_urban rail rail_electric rail_fast ship container cable_car subway aircraft wheelchair scooter drone" speed="27.78" length="12.31" shape="1252.33,2141.97 1240.01,2141.85"/>
        <lane id=":3676182392_0_1" index="1" disallow="tram rail_urban rail rail_electric rail_fast ship container cable_car subway aircraft wheelchair scooter drone" speed="27.78" length="12.31" shape="1252.35,2138.77 1240.04,2138.65"/>
    </edge>
    <edge id=":3676182392_2" function="internal">
        <lane id=":3676182392_2_0" index="0" disallow="pedestrian bicycle tram rail_urban rail rail_electric rail_fast ship container cable_car subway aircraft wheelchair scooter drone" speed="13.28" length="16.09" shape="1252.35,2138.77 1247.31,2138.31 1243.57,2137.08 1240.62,2135.19 1237.97,2132.78"/>
    </edge>
    <edge id=":3676182395_0" function="internal">
        <lane id=":3676182395_0_0" index="0" disallow="tram rail_urban rail rail_electric rail_fast ship container cable_car subway aircraft wheelchair scooter drone" speed="27.78" length="3.89" shape="1239.81,2141.85 1243.69,2141.89"/>
        <lane id=":3676182395_0_1" index="1" disallow="tram rail_urban rail rail_electric rail_fast ship container cable_car subway aircraft wheelchair scooter drone" speed="27.78" length="3.89" shape="1239.84,2138.65 1243.73,2138.69"/>
    </edge>
    <edge id=":3676182396_0" function="internal">
        <lane id=":3676182396_0_0" index="0" disallow="tram rail_urban rail rail_electric rail_fast ship container cable_car subway aircraft wheelchair scooter drone" speed="22.23" length="5.72" shape="1186.71,2141.92 1185.09,2142.20 1184.04,2142.77 1183.00,2143.36 1181.38,2143.66"/>
        <lane id=":3676182396_0_1" index="1" disallow="tram rail_urban rail rail_electric rail_fast ship container cable_car subway aircraft wheelchair scooter drone" speed="22.23" length="5.72" shape="1186.66,2138.72 1185.02,2139.00 1183.97,2139.57 1182.92,2140.16 1181.28,2140.46"/>
        <lane id=":3676182396_0_2" index="2" disallow="tram rail_urban rail rail_electric rail_fast ship container cable_car subway aircraft wheelchair scooter drone" speed="22.23" length="5.72" shape="1186.66,2138.72 1185.01,2138.50 1183.92,2137.98 1182.83,2137.46 1181.18,2137.27"/>
    </edge>
    <edge id=":4030020701_0" function="internal">
        <lane id=":4030020701_0_0" index="0" disallow="pedestrian bicycle tram rail_urban rail rail_electric rail_fast ship container cable_car subway aircraft wheelchair scooter drone" speed="12.07" length="3.37" shape="1169.67,2131.25 1168.26,2134.31"/>
    </edge>
    <edge id=":426962459_0" function="internal">
        <lane id=":426962459_0_0" index="0" disallow="tram rail_urban rail rail_electric rail_fast ship container cable_car subway aircraft wheelchair scooter drone" speed="22.23" length="8.21" shape="1196.40,2148.01 1198.80,2147.77 1200.39,2147.22 1201.99,2146.67 1204.39,2146.40"/>
        <lane id=":426962459_0_1" index="1" disallow="tram rail_urban rail rail_electric rail_fast ship container cable_car subway aircraft wheelchair scooter drone" speed="22.23" length="8.21" shape="1196.39,2151.21 1198.79,2150.97 1200.40,2150.42 1202.00,2149.87 1204.41,2149.60"/>
    </edge>
    <edge id=":850854662_0" function="internal">
        <lane id=":850854662_0_0" index="0" disallow="pedestrian bicycle tram rail_urban rail rail_electric rail_fast ship container cable_car subway aircraft wheelchair scooter drone" speed="18.69" length="10.86" width="4.00" shape="1225.92,2119.21 1224.33,2116.49 1222.97,2114.51 1222.01,2112.44 1221.60,2109.44"/>
    </edge>
    <edge id=":850854662_1" function="internal">
        <lane id=":850854662_1_0" index="0" disallow="pedestrian bicycle tram rail_urban rail rail_electric rail_fast ship container cable_car subway aircraft wheelchair scooter drone" speed="22.22" length="9.25" width="4.00" shape="1221.32,2118.68 1221.60,2109.44"/>
    </edge>
    <edge id=":850854668_0" function="internal">
        <lane id=":850854668_0_0" index="0" disallow="pedestrian bicycle tram rail_urban rail rail_electric rail_fast ship container cable_car subway aircraft wheelchair scooter drone" speed="27.78" length="0.30" shape="1204.97,2113.09 1204.97,2112.83"/>
        <lane id=":850854668_0_1" index="1" disallow="pedestrian bicycle tram rail_urban rail rail_electric rail_fast ship container cable_car subway aircraft wheelchair scooter drone" speed="27.78" length="0.30" shape="1208.17,2113.07 1208.17,2112.77"/>
        <lane id=":850854668_0_2" index="2" disallow="pedestrian bicycle tram rail_urban rail rail_electric rail_fast ship container cable_car subway aircraft wheelchair scooter drone" speed="27.78" length="0.30" shape="1211.37,2113.04 1211.37,2112.72"/>
    </edge>
    <edge id=":850854673_0" function="internal">
        <lane id=":850854673_0_0" index="0" disallow="pedestrian bicycle tram rail_urban rail rail_electric rail_fast ship container cable_car subway aircraft wheelchair scooter drone" speed="27.78" length="0.30" shape="1200.53,2173.09 1200.53,2173.36"/>
        <lane id=":850854673_0_1" index="1" disallow="pedestrian bicycle tram rail_urban rail rail_electric rail_fast ship container cable_car subway aircraft wheelchair scooter drone" speed="27.78" length="0.30" shape="1197.33,2173.13 1197.33,2173.43"/>
        <lane id=":850854673_0_2" index="2" disallow="pedestrian bicycle tram rail_urban rail rail_electric rail_fast ship container cable_car subway aircraft wheelchair scooter drone" speed="27.78" length="0.30" shape="1194.13,2173.17 1194.13,2173.49"/>
    </edge>
    <edge id=":850854713_0" function="internal">
        <lane id=":850854713_0_0" index="0" disallow="tram rail_urban rail rail_electric rail_fast ship container cable_car subway aircraft wheelchair scooter drone" speed="27.78" length="15.77" shape="1246.87,2146.42 1262.63,2146.48"/>
        <lane id=":850854713_0_1" index="1" disallow="tram rail_urban rail rail_electric rail_fast ship container cable_car subway aircraft wheelchair scooter drone" speed="27.78" length="15.77" shape="1246.86,2149.62 1262.63,2149.68"/>
    </edge>
    <edge id=":850854713_2" function="internal">
        <lane id=":850854713_2_0" index="0" disallow="pedestrian bicycle tram rail_urban rail rail_electric rail_fast ship container cable_car subway aircraft wheelchair scooter drone" speed="23.44" length="15.69" shape="1247.85,2154.33 1250.99,2152.74 1254.05,2151.24 1257.69,2150.12 1262.63,2149.68"/>
    </edge>
    <edge id=":850854718_0" function="internal">
        <lane id=":850854718_0_0" index="0" disallow="pedestrian bicycle tram rail_urban rail rail_electric rail_fast ship container cable_car subway aircraft wheelchair scooter drone" speed="16.67" length="8.87" shape="1220.97,2183.17 1221.01,2174.31"/>
        <lane id=":850854718_0_1" index="1" disallow="pedestrian bicycle tram rail_urban rail rail_electric rail_fast ship container cable_car subway aircraft wheelchair scooter drone" speed="16.67" length="8.87" shape="1224.16,2183.20 1224.21,2174.33"/>
    </edge>
    <edge id=":850854718_2" function="internal">
        <lane id=":850854718_2_0" index="0" disallow="pedestrian bicycle tram rail_urban rail rail_electric rail_fast ship container cable_car subway aircraft wheelchair scooter drone" speed="12.74" length="8.86" shape="1224.16,2183.20 1224.44,2180.68 1225.19,2179.07 1226.38,2177.58 1227.96,2175.46"/>
    </edge>
    <edge id=":850854727_0" function="internal">
        <lane id=":850854727_0_0" index="0" disallow="pedestrian bicycle tram rail_urban rail rail_electric rail_fast ship container cable_car subway aircraft wheelchair scooter drone" speed="6.83" length="9.58" width="5.00" shape="1213.80,2123.23 1217.03,2122.88 1219.36,2122.04 1220.78,2120.71 1221.31,2118.88"/>
    </edge>
    <edge id=":850854727_1" function="internal">
        <lane id=":850854727_1_0" index="0" disallow="pedestrian bicycle tram rail_urban rail rail_electric rail_fast ship container cable_car subway aircraft wheelchair scooter drone" speed="3.65" length="1.44" shape="1213.80,2123.23 1215.02,2124.00"/>
    </edge>
    <edge id=":850854727_4" function="internal">
        <lane id=":850854727_4_0" index="0" disallow="pedestrian bicycle tram rail_urban rail rail_electric rail_fast ship container cable_car subway aircraft wheelchair scooter drone" speed="3.65" length="3.23" shape="1215.02,2124.00 1215.44,2124.79 1215.07,2125.60 1213.89,2126.43"/>
    </edge>
    <edge id=":850854727_2" function="internal">
        <lane id=":850854727_2_0" index="0" disallow="pedestrian bicycle tram rail_urban rail rail_electric rail_fast ship container cable_car subway aircraft wheelchair scooter drone" speed="6.53" length="9.92" shape="1219.64,2132.31 1219.71,2129.67 1218.78,2127.81 1216.84,2126.73 1213.89,2126.43"/>
    </edge>
    <edge id=":850854727_3" function="internal">
        <lane id=":850854727_3_0" index="0" disallow="pedestrian bicycle tram rail_urban rail rail_electric rail_fast ship container cable_car subway aircraft wheelchair scooter drone" speed="22.22" length="13.55" width="5.00" shape="1219.64,2132.31 1220.27,2128.85 1220.76,2125.63 1221.10,2122.40 1221.31,2118.88"/>
    </edge>
    <edge id=":850854730_0" function="internal">
        <lane id=":850854730_0_0" index="0" disallow="pedestrian bicycle tram rail_urban rail rail_electric rail_fast ship container cable_car subway aircraft wheelchair scooter drone" speed="27.78" length="0.30" shape="1199.82,2112.84 1199.82,2113.14"/>
        <lane id=":850854730_0_1" index="1" disallow="pedestrian bicycle tram rail_urban rail rail_electric rail_fast ship container cable_car subway aircraft wheelchair scooter drone" speed="27.78" length="0.30" shape="1196.62,2112.88 1196.62,2113.18"/>
        <lane id=":850854730_0_2" index="2" disallow="pedestrian bicycle tram rail_urban rail rail_electric rail_fast ship container cable_car subway aircraft wheelchair scooter drone" speed="27.78" length="0.30" shape="1193.42,2112.92 1193.42,2113.22"/>
    </edge>
    <edge id=":850854732_0" function="internal">
        <lane id=":850854732_0_0" index="0" disallow="pedestrian bicycle tram rail_urban rail rail_electric rail_fast ship container cable_car subway aircraft wheelchair scooter drone" speed="22.22" length="10.18" width="4.00" shape="1185.53,2104.10 1185.55,2114.29"/>
    </edge>
    <edge id=":850854732_1" function="internal">
        <lane id=":850854732_1_0" index="0" disallow="pedestrian bicycle tram rail_urban rail rail_electric rail_fast ship container cable_car subway aircraft wheelchair scooter drone" speed="16.73" length="10.38" shape="1185.53,2104.10 1185.22,2107.04 1184.34,2108.96 1183.03,2110.78 1181.44,2113.42"/>
    </edge>
    <edge id=":850854768_0" function="internal">
        <lane id=":850854768_0_0" index="0" disallow="pedestrian bicycle tram rail_urban rail rail_electric rail_fast ship container cable_car subway aircraft wheelchair scooter drone" speed="19.45" length="11.19" shape="1186.57,2179.86 1186.81,2182.91 1187.35,2185.17 1187.90,2187.53 1188.16,2190.91"/>
    </edge>
    <edge id=":850854768_1" function="internal">
        <lane id=":850854768_1_0" index="0" disallow="pedestrian bicycle tram rail_urban rail rail_electric rail_fast ship container cable_car subway aircraft wheelchair scooter drone" speed="12.32" length="10.40" shape="1182.78,2181.23 1185.11,2183.76 1186.79,2185.59 1187.81,2187.66 1188.16,2190.91"/>
        <lane id=":850854768_1_1" index="1" disallow="pedestrian bicycle tram rail_urban rail rail_electric rail_fast ship container cable_car subway aircraft wheelchair scooter drone" speed="11.12" length="10.40" shape="1180.32,2183.27 1182.25,2185.29 1183.71,2186.71 1184.63,2188.32 1184.96,2190.92"/>
    </edge>
    <edge id=":850854772_0" function="internal">
        <lane id=":850854772_0_0" index="0" disallow="pedestrian bicycle tram rail_urban rail rail_electric rail_fast ship container cable_car subway aircraft wheelchair scooter drone" speed="22.23" length="0.30" shape="1205.43,2172.80 1205.43,2172.49"/>
        <lane id=":850854772_0_1" index="1" disallow="pedestrian bicycle tram rail_urban rail rail_electric rail_fast ship container cable_car subway aircraft wheelchair scooter drone" speed="22.23" length="0.30" shape="1208.63,2172.76 1208.63,2172.46"/>
        <lane id=":850854772_0_2" index="2" disallow="pedestrian bicycle tram rail_urban rail rail_electric rail_fast ship container cable_car subway aircraft wheelchair scooter drone" speed="22.23" length="0.30" shape="1211.83,2172.72 1211.83,2172.44"/>
    </edge>
    <edge id=":850854779_0" function="internal">
        <lane id=":850854779_0_0" index="0" disallow="pedestrian bicycle tram rail_urban rail rail_electric rail_fast ship container cable_car subway aircraft wheelchair scooter drone" speed="16.67" length="18.29" shape="1172.55,2143.94 1154.33,2142.93"/>
        <lane id=":850854779_0_1" index="1" disallow="pedestrian bicycle tram rail_urban rail rail_electric rail_fast ship container cable_car subway aircraft wheelchair scooter drone" speed="16.67" length="18.29" shape="1172.45,2140.74 1154.16,2139.73"/>
    </edge>
    <edge id=":850854779_2" function="internal">
        <lane id=":850854779_2_0" index="0" disallow="pedestrian bicycle tram rail_urban rail rail_electric rail_fast ship container cable_car subway aircraft wheelchair scooter drone" speed="19.45" length="15.11" shape="1168.08,2134.40 1165.09,2136.17 1162.26,2137.80 1158.85,2139.07 1154.16,2139.73"/>
    </edge>

    <edge id="-1356844321" from="850854727" to="12558291922" priority="8" type="highway.trunk_link">
        <lane id="-1356844321_0" index="0" disallow="pedestrian bicycle tram rail_urban rail rail_electric rail_fast ship container cable_car subway aircraft wheelchair scooter drone" speed="22.22" length="19.65" shape="1213.89,2126.43 1194.24,2126.97"/>
    </edge>
    <edge id="1083263216" from="850854713" to="529804687" priority="12" type="highway.primary" spreadType="center" shape="1261.87,2148.08 1289.08,2148.11 1309.48,2148.14 1345.09,2148.20 1346.08,2148.20 1365.78,2146.15 1406.89,2141.21 1468.71,2132.64 1485.36,2129.58 1517.95,2121.86 1529.90,2117.18 1556.45,2106.33">
        <lane id="1083263216_0" index="0" disallow="tram rail_urban rail rail_electric rail_fast ship container cable_car subway aircraft wheelchair scooter drone" speed="27.78" length="299.01" acceleration="1" shape="1262.63,2146.48 1289.08,2146.51 1309.48,2146.54 1345.09,2146.60 1346.00,2146.60 1365.60,2144.56 1406.68,2139.62 1468.46,2131.06 1485.03,2128.01 1517.47,2120.33 1529.31,2115.69 1555.84,2104.85"/>